      48
 i =        6, E =      -296.3595392108
  C        12.5299820231       10.0000000000        7.3143704443
  C        12.5820287810       10.0000000000        1.5034688937
  C         9.9747769883       10.0000000000        2.8129063019
  C         7.5303675135       10.0000000000        2.8587994234
  C        14.9444424774       10.0000000000        7.2237005199
  C        14.9736870629       10.0000000000        5.8369914221
  C         7.4675119558       10.0000000000        1.4604745424
  C         4.9839501621       10.0000000000        2.9832163818
  C         7.5384677080       10.0000000000        5.8411999980
  C         2.5388551015       10.0000000000        1.3856281315
  C         2.4868084937       10.0000000000        7.1965306104
  C         5.0940582213       10.0000000000        5.8870940531
  C         0.1243945817       10.0000000000        1.4762988348
  C         0.0951502789       10.0000000000        2.8630079830
  C         7.6013248762       10.0000000000        7.2395247856
  C        10.0848857007       10.0000000000        5.7167835836
  N        11.3467453050       10.0000000000        7.9955082836
  N         8.8207649962       10.0000000000        7.9217845354
  N         9.9907352234       10.0000000000        1.4339139198
  N        13.7276660851       10.0000000000        7.9560980114
  N         8.7977412925       10.0000000000        3.4812354078
  N         3.7624327649       10.0000000000        3.6699769944
  N         1.2808031459       10.0000000000        3.6129851923
  N         2.4878787571       10.0000000000        5.7816052610
  N         3.7220926989       10.0000000000        0.7044912138
  N         6.2480725936       10.0000000000        0.7782151450
  N         5.0781010017       10.0000000000        7.2660862339
  N         1.3411706762       10.0000000000        0.7439010588
  N         6.2710929679       10.0000000000        5.2187645438
  N        11.3064025088       10.0000000000        5.0300223653
  N        13.7880347989       10.0000000000        5.0870137741
  N        12.5809585432       10.0000000000        2.9183945179
  B        10.0858472098       10.0000000000        7.2090917446
  B         8.7580799604       10.0000000000        0.6762991338
  B        11.3116231875       10.0000000000        0.7663472126
  B        13.8418689385       10.0000000000        0.7465122376
  B         6.2598187391       10.0000000000        3.7099968630
  B         3.7551652950       10.0000000000        5.1043784500
  B         2.5343129267       10.0000000000        2.9329804587
  B         1.2391581965       10.0000000000        5.0805418512
  B         8.8090168671       10.0000000000        4.9900033151
  B         4.9829899227       10.0000000000        1.4909081578
  B         6.3107572636       10.0000000000        8.0237007167
  B         3.7572138201       10.0000000000        7.9336525119
  B         1.2269680947       10.0000000000        7.9534866510
  B        11.3136708453       10.0000000000        3.5956209944
  B        12.5345239087       10.0000000000        5.7670178083
  B        13.8296791213       10.0000000000        3.6194573746
