      48
 i =        6, E =      -296.3595392108
  C        12.5994738316       10.6657453531        6.8374086876
  C        12.6013992677       10.4684376152        1.0110207546
  C        10.0105833862       11.1782392939        2.3664145748
  C         7.5564135640       11.1600464447        2.4259597228
  C        14.9735105017       10.2226950550        6.7027295473
  C        15.0223026174       10.2576266986        5.3557768272
  C         7.5242675837       10.9259920202        1.0541936514
  C         5.0386201864       10.5976056732        2.4954575421
  C         7.5853018052       10.8680919438        5.3339219956
  C         2.6079331014        9.9819164567        0.9322828238
  C         2.6001290355       10.0611009642        6.7064235413
  C         5.1498414576       10.2438220035        5.4110948825
  C         0.1493001563        9.9863135287        0.9843780899
  C         0.1056703456       10.0338144956        2.3671896827
  C         7.6875140502       10.7072547526        6.7430317190
  C        10.1249159137       11.1339605593        5.3266913994
  N        11.4407945064       10.8838206178        7.5334790783
  N         8.8884682433       10.8333530992        7.4511403454
  N        10.0153827528       10.9598409842        1.0115007110
  N        13.8037886021       10.3500726286        7.4798978538
  N         8.8313851692       11.3194250690        3.0188588488
  N         3.8313726953       10.2724771973        3.2213269823
  N         1.2906570977       10.0199204280        3.1758912651
  N         2.5291247508       10.0158728227        5.3073729283
  N         3.7883493917       10.1557478792        0.2528617733
  N         6.3581048616       10.5885718727        0.3060044773
  N         5.1877816281       10.1573802072        6.8295924471
  N         1.4132511842        9.9677056439        0.3138600749
  N         6.2743030635       10.6043633756        4.7647488501
  N        11.4071821498       11.0239677408        4.5876799858
  N        13.8143891527       10.3413491855        4.5864246414
  N        12.5923425743       10.5466077743        2.4513176902
  B        10.1664655227       10.9669807867        6.7678002400
  B         8.8169585517       10.8565337706        0.2012078066
  B        11.3765569486       10.8321886285        0.2779412992
  B        13.8503422089       10.1600215784        0.2009061390
  B         6.2751378229       10.7918234022        3.2617788661
  B         3.8328795911       10.1742757214        4.6611751878
  B         2.5474392240       10.0581816658        2.4991392312
  B         1.2781432050       10.0688705466        4.6666569335
  B         8.8718853799       11.2063996453        4.5762922791
  B         5.1029335194       10.3514876241        1.0007358940
  B         6.4174662370       10.4755797238        7.5160427205
  B         3.8772953883       10.0818765285        7.4997817549
  B         1.2791210931       10.1243452308        7.4244937588
  B        11.3546449909       10.9491447545        3.1936240659
  B        12.6297816920       10.7803348349        5.2773025896
  B        13.8475123330       10.2982562740        3.1338333714