      48
 i =        6, E =      -296.3595392108
  C        12.5299817861       10.0000000000        7.3143703932
  C        12.5820285389       10.0000000000        1.5034688394
  C         9.9747767590       10.0000000000        2.8129062464
  C         7.5303672891       10.0000000000        2.8587993803
  C        14.9444422376       10.0000000000        7.2237004690
  C        14.9736868229       10.0000000000        5.8369913707
  C         7.4675117220       10.0000000000        1.4604744987
  C         4.9839499336       10.0000000000        2.9832163354
  C         7.5384674760       10.0000000000        5.8411999530
  C         2.5388548578       10.0000000000        1.3856280995
  C         2.4868082532       10.0000000000        7.1965305660
  C         5.0940579892       10.0000000000        5.8870940088
  C         0.1243943440       10.0000000000        1.4762987827
  C         0.0951500357       10.0000000000        2.8630079338
  C         7.6013246355       10.0000000000        7.2395247392
  C        10.0848854647       10.0000000000        5.7167835281
  N        11.3467450664       10.0000000000        7.9955082297
  N         8.8207647541       10.0000000000        7.9217844762
  N         9.9907349849       10.0000000000        1.4339138656
  N        13.7276658502       10.0000000000        7.9560979650
  N         8.7977410677       10.0000000000        3.4812353628
  N         3.7624325420       10.0000000000        3.6699769518
  N         1.2808028961       10.0000000000        3.6129851485
  N         2.4878785149       10.0000000000        5.7816052199
  N         3.7220924519       10.0000000000        0.7044911716
  N         6.2480723535       10.0000000000        0.7782151054
  N         5.0781007667       10.0000000000        7.2660861939
  N         1.3411704388       10.0000000000        0.7439010165
  N         6.2710927395       10.0000000000        5.2187644987
  N        11.3064022714       10.0000000000        5.0300223061
  N        13.7880345524       10.0000000000        5.0870137256
  N        12.5809583024       10.0000000000        2.9183944599
  B        10.0858469674       10.0000000000        7.2090916884
  B         8.7580797227       10.0000000000        0.6762990816
  B        11.3116229506       10.0000000000        0.7663471514
  B        13.8418686974       10.0000000000        0.7465121883
  B         6.2598185109       10.0000000000        3.7099968204
  B         3.7551650616       10.0000000000        5.1043784085
  B         2.5343126886       10.0000000000        2.9329804268
  B         1.2391579532       10.0000000000        5.0805418082
  B         8.8090166308       10.0000000000        4.9900032646
  B         4.9829896759       10.0000000000        1.4909081092
  B         6.3107570247       10.0000000000        8.0237006784
  B         3.7572135854       10.0000000000        7.9336524675
  B         1.2269678551       10.0000000000        7.9534866062
  B        11.3136706079       10.0000000000        3.5956209390
  B        12.5345236721       10.0000000000        5.7670177552
  B        13.8296788766       10.0000000000        3.6194573178
